
---------- Begin Simulation Statistics ----------
final_tick                                61291405500                       # Number of ticks from beginning of simulation (restored from checkpoints and never reset)
host_inst_rate                                 345854                       # Simulator instruction rate (inst/s)
host_mem_usage                                 685720                       # Number of bytes of host memory used
host_op_rate                                   378474                       # Simulator op (including micro ops) rate (op/s)
host_seconds                                   289.14                       # Real time elapsed on the host
host_tick_rate                              211978583                       # Simulator tick rate (ticks/s)
sim_freq                                 1000000000000                       # Frequency of simulated ticks
sim_insts                                   100000001                       # Number of instructions simulated
sim_ops                                     109431937                       # Number of ops (including micro ops) simulated
sim_seconds                                  0.061291                       # Number of seconds simulated
sim_ticks                                 61291405500                       # Number of ticks simulated
system.cpu.branchPred.BTBCorrect                    0                       # Number of correct BTB predictions (this stat may not work properly.
system.cpu.branchPred.BTBHitPct             87.599080                       # BTB Hit Percentage
system.cpu.branchPred.BTBHits                 8747716                       # Number of BTB hits
system.cpu.branchPred.BTBLookups              9986082                       # Number of BTB lookups
system.cpu.branchPred.RASInCorrect                348                       # Number of incorrect RAS predictions.
system.cpu.branchPred.condIncorrect            155031                       # Number of conditional branches incorrect
system.cpu.branchPred.condPredicted          16522170                       # Number of conditional branches predicted
system.cpu.branchPred.indirectHits             300032                       # Number of indirect target hits.
system.cpu.branchPred.indirectLookups          540239                       # Number of indirect predictor lookups.
system.cpu.branchPred.indirectMisses           240207                       # Number of indirect misses.
system.cpu.branchPred.lookups                20629055                       # Number of BP lookups
system.cpu.branchPred.usedRAS                 1050662                       # Number of times the RAS was used to get a target.
system.cpu.branchPredindirectMispredicted         1215                       # Number of mispredicted indirect branches.
system.cpu.committedInsts                   100000001                       # Number of instructions committed
system.cpu.committedOps                     109431937                       # Number of ops (including micro ops) committed
system.cpu.cpi                               1.225828                       # CPI: cycles per instruction
system.cpu.discardedOps                        775783                       # Number of ops (including micro ops) which were discarded before commit
system.cpu.dtb.accesses                             0                       # DTB accesses
system.cpu.dtb.align_faults                         0                       # Number of TLB faults due to alignment restrictions
system.cpu.dtb.domain_faults                        0                       # Number of TLB faults due to domain restrictions
system.cpu.dtb.flush_entries                        0                       # Number of entries that have been flushed from TLB
system.cpu.dtb.flush_tlb                            0                       # Number of times complete TLB was flushed
system.cpu.dtb.flush_tlb_asid                       0                       # Number of times TLB was flushed by ASID
system.cpu.dtb.flush_tlb_mva                        0                       # Number of times TLB was flushed by MVA
system.cpu.dtb.flush_tlb_mva_asid                   0                       # Number of times TLB was flushed by MVA & ASID
system.cpu.dtb.hits                                 0                       # DTB hits
system.cpu.dtb.inst_accesses                        0                       # ITB inst accesses
system.cpu.dtb.inst_hits                            0                       # ITB inst hits
system.cpu.dtb.inst_misses                          0                       # ITB inst misses
system.cpu.dtb.misses                               0                       # DTB misses
system.cpu.dtb.perms_faults                         0                       # Number of TLB faults due to permissions restrictions
system.cpu.dtb.prefetch_faults                      0                       # Number of TLB faults due to prefetch
system.cpu.dtb.read_accesses                        0                       # DTB read accesses
system.cpu.dtb.read_hits                            0                       # DTB read hits
system.cpu.dtb.read_misses                          0                       # DTB read misses
system.cpu.dtb.stage2_mmu.stage2_tlb.accesses            0                       # DTB accesses
system.cpu.dtb.stage2_mmu.stage2_tlb.align_faults            0                       # Number of TLB faults due to alignment restrictions
system.cpu.dtb.stage2_mmu.stage2_tlb.domain_faults            0                       # Number of TLB faults due to domain restrictions
system.cpu.dtb.stage2_mmu.stage2_tlb.flush_entries            0                       # Number of entries that have been flushed from TLB
system.cpu.dtb.stage2_mmu.stage2_tlb.flush_tlb            0                       # Number of times complete TLB was flushed
system.cpu.dtb.stage2_mmu.stage2_tlb.flush_tlb_asid            0                       # Number of times TLB was flushed by ASID
system.cpu.dtb.stage2_mmu.stage2_tlb.flush_tlb_mva            0                       # Number of times TLB was flushed by MVA
system.cpu.dtb.stage2_mmu.stage2_tlb.flush_tlb_mva_asid            0                       # Number of times TLB was flushed by MVA & ASID
system.cpu.dtb.stage2_mmu.stage2_tlb.hits            0                       # DTB hits
system.cpu.dtb.stage2_mmu.stage2_tlb.inst_accesses            0                       # ITB inst accesses
system.cpu.dtb.stage2_mmu.stage2_tlb.inst_hits            0                       # ITB inst hits
system.cpu.dtb.stage2_mmu.stage2_tlb.inst_misses            0                       # ITB inst misses
system.cpu.dtb.stage2_mmu.stage2_tlb.misses            0                       # DTB misses
system.cpu.dtb.stage2_mmu.stage2_tlb.perms_faults            0                       # Number of TLB faults due to permissions restrictions
system.cpu.dtb.stage2_mmu.stage2_tlb.prefetch_faults            0                       # Number of TLB faults due to prefetch
system.cpu.dtb.stage2_mmu.stage2_tlb.read_accesses            0                       # DTB read accesses
system.cpu.dtb.stage2_mmu.stage2_tlb.read_hits            0                       # DTB read hits
system.cpu.dtb.stage2_mmu.stage2_tlb.read_misses            0                       # DTB read misses
system.cpu.dtb.stage2_mmu.stage2_tlb.walker.walkRequestOrigin_Requested::Data            0                       # Table walker requests started/completed, data/inst
system.cpu.dtb.stage2_mmu.stage2_tlb.walker.walkRequestOrigin_Requested::Inst            0                       # Table walker requests started/completed, data/inst
system.cpu.dtb.stage2_mmu.stage2_tlb.walker.walkRequestOrigin_Requested::total            0                       # Table walker requests started/completed, data/inst
system.cpu.dtb.stage2_mmu.stage2_tlb.walker.walkRequestOrigin_Completed::Data            0                       # Table walker requests started/completed, data/inst
system.cpu.dtb.stage2_mmu.stage2_tlb.walker.walkRequestOrigin_Completed::Inst            0                       # Table walker requests started/completed, data/inst
system.cpu.dtb.stage2_mmu.stage2_tlb.walker.walkRequestOrigin_Completed::total            0                       # Table walker requests started/completed, data/inst
system.cpu.dtb.stage2_mmu.stage2_tlb.walker.walkRequestOrigin::total            0                       # Table walker requests started/completed, data/inst
system.cpu.dtb.stage2_mmu.stage2_tlb.walker.walks            0                       # Table walker walks requested
system.cpu.dtb.stage2_mmu.stage2_tlb.write_accesses            0                       # DTB write accesses
system.cpu.dtb.stage2_mmu.stage2_tlb.write_hits            0                       # DTB write hits
system.cpu.dtb.stage2_mmu.stage2_tlb.write_misses            0                       # DTB write misses
system.cpu.dtb.walker.walkRequestOrigin_Requested::Data            0                       # Table walker requests started/completed, data/inst
system.cpu.dtb.walker.walkRequestOrigin_Requested::Inst            0                       # Table walker requests started/completed, data/inst
system.cpu.dtb.walker.walkRequestOrigin_Requested::total            0                       # Table walker requests started/completed, data/inst
system.cpu.dtb.walker.walkRequestOrigin_Completed::Data            0                       # Table walker requests started/completed, data/inst
system.cpu.dtb.walker.walkRequestOrigin_Completed::Inst            0                       # Table walker requests started/completed, data/inst
system.cpu.dtb.walker.walkRequestOrigin_Completed::total            0                       # Table walker requests started/completed, data/inst
system.cpu.dtb.walker.walkRequestOrigin::total            0                       # Table walker requests started/completed, data/inst
system.cpu.dtb.walker.walks                         0                       # Table walker walks requested
system.cpu.dtb.write_accesses                       0                       # DTB write accesses
system.cpu.dtb.write_hits                           0                       # DTB write hits
system.cpu.dtb.write_misses                         0                       # DTB write misses
system.cpu.fetch2.amo_instructions                  0                       # Number of memory atomic instructions successfully decoded
system.cpu.fetch2.fp_instructions                   0                       # Number of floating point instructions successfully decoded
system.cpu.fetch2.int_instructions           50002738                       # Number of integer instructions successfully decoded
system.cpu.fetch2.load_instructions          17199140                       # Number of memory load instructions successfully decoded
system.cpu.fetch2.store_instructions         10082011                       # Number of memory store instructions successfully decoded
system.cpu.fetch2.vec_instructions                  0                       # Number of SIMD instructions successfully decoded
system.cpu.idleCycles                         9334582                       # Total number of cycles that the object has spent stopped
system.cpu.ipc                               0.815775                       # IPC: instructions per cycle
system.cpu.itb.accesses                             0                       # DTB accesses
system.cpu.itb.align_faults                         0                       # Number of TLB faults due to alignment restrictions
system.cpu.itb.domain_faults                        0                       # Number of TLB faults due to domain restrictions
system.cpu.itb.flush_entries                        0                       # Number of entries that have been flushed from TLB
system.cpu.itb.flush_tlb                            0                       # Number of times complete TLB was flushed
system.cpu.itb.flush_tlb_asid                       0                       # Number of times TLB was flushed by ASID
system.cpu.itb.flush_tlb_mva                        0                       # Number of times TLB was flushed by MVA
system.cpu.itb.flush_tlb_mva_asid                   0                       # Number of times TLB was flushed by MVA & ASID
system.cpu.itb.hits                                 0                       # DTB hits
system.cpu.itb.inst_accesses                        0                       # ITB inst accesses
system.cpu.itb.inst_hits                            0                       # ITB inst hits
system.cpu.itb.inst_misses                          0                       # ITB inst misses
system.cpu.itb.misses                               0                       # DTB misses
system.cpu.itb.perms_faults                         0                       # Number of TLB faults due to permissions restrictions
system.cpu.itb.prefetch_faults                      0                       # Number of TLB faults due to prefetch
system.cpu.itb.read_accesses                        0                       # DTB read accesses
system.cpu.itb.read_hits                            0                       # DTB read hits
system.cpu.itb.read_misses                          0                       # DTB read misses
system.cpu.itb.stage2_mmu.stage2_tlb.accesses            0                       # DTB accesses
system.cpu.itb.stage2_mmu.stage2_tlb.align_faults            0                       # Number of TLB faults due to alignment restrictions
system.cpu.itb.stage2_mmu.stage2_tlb.domain_faults            0                       # Number of TLB faults due to domain restrictions
system.cpu.itb.stage2_mmu.stage2_tlb.flush_entries            0                       # Number of entries that have been flushed from TLB
system.cpu.itb.stage2_mmu.stage2_tlb.flush_tlb            0                       # Number of times complete TLB was flushed
system.cpu.itb.stage2_mmu.stage2_tlb.flush_tlb_asid            0                       # Number of times TLB was flushed by ASID
system.cpu.itb.stage2_mmu.stage2_tlb.flush_tlb_mva            0                       # Number of times TLB was flushed by MVA
system.cpu.itb.stage2_mmu.stage2_tlb.flush_tlb_mva_asid            0                       # Number of times TLB was flushed by MVA & ASID
system.cpu.itb.stage2_mmu.stage2_tlb.hits            0                       # DTB hits
system.cpu.itb.stage2_mmu.stage2_tlb.inst_accesses            0                       # ITB inst accesses
system.cpu.itb.stage2_mmu.stage2_tlb.inst_hits            0                       # ITB inst hits
system.cpu.itb.stage2_mmu.stage2_tlb.inst_misses            0                       # ITB inst misses
system.cpu.itb.stage2_mmu.stage2_tlb.misses            0                       # DTB misses
system.cpu.itb.stage2_mmu.stage2_tlb.perms_faults            0                       # Number of TLB faults due to permissions restrictions
system.cpu.itb.stage2_mmu.stage2_tlb.prefetch_faults            0                       # Number of TLB faults due to prefetch
system.cpu.itb.stage2_mmu.stage2_tlb.read_accesses            0                       # DTB read accesses
system.cpu.itb.stage2_mmu.stage2_tlb.read_hits            0                       # DTB read hits
system.cpu.itb.stage2_mmu.stage2_tlb.read_misses            0                       # DTB read misses
system.cpu.itb.stage2_mmu.stage2_tlb.walker.walkRequestOrigin_Requested::Data            0                       # Table walker requests started/completed, data/inst
system.cpu.itb.stage2_mmu.stage2_tlb.walker.walkRequestOrigin_Requested::Inst            0                       # Table walker requests started/completed, data/inst
system.cpu.itb.stage2_mmu.stage2_tlb.walker.walkRequestOrigin_Requested::total            0                       # Table walker requests started/completed, data/inst
system.cpu.itb.stage2_mmu.stage2_tlb.walker.walkRequestOrigin_Completed::Data            0                       # Table walker requests started/completed, data/inst
system.cpu.itb.stage2_mmu.stage2_tlb.walker.walkRequestOrigin_Completed::Inst            0                       # Table walker requests started/completed, data/inst
system.cpu.itb.stage2_mmu.stage2_tlb.walker.walkRequestOrigin_Completed::total            0                       # Table walker requests started/completed, data/inst
system.cpu.itb.stage2_mmu.stage2_tlb.walker.walkRequestOrigin::total            0                       # Table walker requests started/completed, data/inst
system.cpu.itb.stage2_mmu.stage2_tlb.walker.walks            0                       # Table walker walks requested
system.cpu.itb.stage2_mmu.stage2_tlb.write_accesses            0                       # DTB write accesses
system.cpu.itb.stage2_mmu.stage2_tlb.write_hits            0                       # DTB write hits
system.cpu.itb.stage2_mmu.stage2_tlb.write_misses            0                       # DTB write misses
system.cpu.itb.walker.walkRequestOrigin_Requested::Data            0                       # Table walker requests started/completed, data/inst
system.cpu.itb.walker.walkRequestOrigin_Requested::Inst            0                       # Table walker requests started/completed, data/inst
system.cpu.itb.walker.walkRequestOrigin_Requested::total            0                       # Table walker requests started/completed, data/inst
system.cpu.itb.walker.walkRequestOrigin_Completed::Data            0                       # Table walker requests started/completed, data/inst
system.cpu.itb.walker.walkRequestOrigin_Completed::Inst            0                       # Table walker requests started/completed, data/inst
system.cpu.itb.walker.walkRequestOrigin_Completed::total            0                       # Table walker requests started/completed, data/inst
system.cpu.itb.walker.walkRequestOrigin::total            0                       # Table walker requests started/completed, data/inst
system.cpu.itb.walker.walks                         0                       # Table walker walks requested
system.cpu.itb.write_accesses                       0                       # DTB write accesses
system.cpu.itb.write_hits                           0                       # DTB write hits
system.cpu.itb.write_misses                         0                       # DTB write misses
system.cpu.numCycles                        122582811                       # number of cpu cycles simulated
system.cpu.numFetchSuspends                         0                       # Number of times Execute suspended instruction fetching
system.cpu.numWorkItemsCompleted                    0                       # number of work items this cpu completed
system.cpu.numWorkItemsStarted                      0                       # number of work items this cpu started
system.cpu.op_class_0::No_OpClass                   0      0.00%      0.00% # Class of committed instruction
system.cpu.op_class_0::IntAlu                72955303     66.67%     66.67% # Class of committed instruction
system.cpu.op_class_0::IntMult                 568365      0.52%     67.19% # Class of committed instruction
system.cpu.op_class_0::IntDiv                       0      0.00%     67.19% # Class of committed instruction
system.cpu.op_class_0::FloatAdd                     0      0.00%     67.19% # Class of committed instruction
system.cpu.op_class_0::FloatCmp                     0      0.00%     67.19% # Class of committed instruction
system.cpu.op_class_0::FloatCvt                     0      0.00%     67.19% # Class of committed instruction
system.cpu.op_class_0::FloatMult                    0      0.00%     67.19% # Class of committed instruction
system.cpu.op_class_0::FloatMultAcc                 0      0.00%     67.19% # Class of committed instruction
system.cpu.op_class_0::FloatDiv                     0      0.00%     67.19% # Class of committed instruction
system.cpu.op_class_0::FloatMisc                    0      0.00%     67.19% # Class of committed instruction
system.cpu.op_class_0::FloatSqrt                    0      0.00%     67.19% # Class of committed instruction
system.cpu.op_class_0::SimdAdd                 241252      0.22%     67.41% # Class of committed instruction
system.cpu.op_class_0::SimdAddAcc                   0      0.00%     67.41% # Class of committed instruction
system.cpu.op_class_0::SimdAlu                 154720      0.14%     67.55% # Class of committed instruction
system.cpu.op_class_0::SimdCmp                 120626      0.11%     67.66% # Class of committed instruction
system.cpu.op_class_0::SimdCvt                      0      0.00%     67.66% # Class of committed instruction
system.cpu.op_class_0::SimdMisc                 44544      0.04%     67.70% # Class of committed instruction
system.cpu.op_class_0::SimdMult                     0      0.00%     67.70% # Class of committed instruction
system.cpu.op_class_0::SimdMultAcc                  0      0.00%     67.70% # Class of committed instruction
system.cpu.op_class_0::SimdShift                    0      0.00%     67.70% # Class of committed instruction
system.cpu.op_class_0::SimdShiftAcc                 0      0.00%     67.70% # Class of committed instruction
system.cpu.op_class_0::SimdDiv                      0      0.00%     67.70% # Class of committed instruction
system.cpu.op_class_0::SimdSqrt                     0      0.00%     67.70% # Class of committed instruction
system.cpu.op_class_0::SimdFloatAdd                 0      0.00%     67.70% # Class of committed instruction
system.cpu.op_class_0::SimdFloatAlu                 0      0.00%     67.70% # Class of committed instruction
system.cpu.op_class_0::SimdFloatCmp                 0      0.00%     67.70% # Class of committed instruction
system.cpu.op_class_0::SimdFloatCvt                 0      0.00%     67.70% # Class of committed instruction
system.cpu.op_class_0::SimdFloatDiv                 0      0.00%     67.70% # Class of committed instruction
system.cpu.op_class_0::SimdFloatMisc           166465      0.15%     67.85% # Class of committed instruction
system.cpu.op_class_0::SimdFloatMult                0      0.00%     67.85% # Class of committed instruction
system.cpu.op_class_0::SimdFloatMultAcc             0      0.00%     67.85% # Class of committed instruction
system.cpu.op_class_0::SimdFloatSqrt                0      0.00%     67.85% # Class of committed instruction
system.cpu.op_class_0::SimdReduceAdd                0      0.00%     67.85% # Class of committed instruction
system.cpu.op_class_0::SimdReduceAlu                0      0.00%     67.85% # Class of committed instruction
system.cpu.op_class_0::SimdReduceCmp                0      0.00%     67.85% # Class of committed instruction
system.cpu.op_class_0::SimdFloatReduceAdd            0      0.00%     67.85% # Class of committed instruction
system.cpu.op_class_0::SimdFloatReduceCmp            0      0.00%     67.85% # Class of committed instruction
system.cpu.op_class_0::SimdAes                      0      0.00%     67.85% # Class of committed instruction
system.cpu.op_class_0::SimdAesMix                   0      0.00%     67.85% # Class of committed instruction
system.cpu.op_class_0::SimdSha1Hash                 0      0.00%     67.85% # Class of committed instruction
system.cpu.op_class_0::SimdSha1Hash2                0      0.00%     67.85% # Class of committed instruction
system.cpu.op_class_0::SimdSha256Hash               0      0.00%     67.85% # Class of committed instruction
system.cpu.op_class_0::SimdSha256Hash2              0      0.00%     67.85% # Class of committed instruction
system.cpu.op_class_0::SimdShaSigma2                0      0.00%     67.85% # Class of committed instruction
system.cpu.op_class_0::SimdShaSigma3                0      0.00%     67.85% # Class of committed instruction
system.cpu.op_class_0::SimdPredAlu                  0      0.00%     67.85% # Class of committed instruction
system.cpu.op_class_0::MemRead               20646465     18.87%     86.72% # Class of committed instruction
system.cpu.op_class_0::MemWrite              14534197     13.28%    100.00% # Class of committed instruction
system.cpu.op_class_0::FloatMemRead                 0      0.00%    100.00% # Class of committed instruction
system.cpu.op_class_0::FloatMemWrite                0      0.00%    100.00% # Class of committed instruction
system.cpu.op_class_0::IprAccess                    0      0.00%    100.00% # Class of committed instruction
system.cpu.op_class_0::InstPrefetch                 0      0.00%    100.00% # Class of committed instruction
system.cpu.op_class_0::total                109431937                       # Class of committed instruction
system.cpu.tickCycles                       113248229                       # Number of cycles that the object actually ticked
system.cpu.workload.numSyscalls                    86                       # Number of system calls
system.membus.snoop_filter.hit_multi_requests            0                       # Number of requests hitting in the snoop filter with multiple (>1) holders of the requested data.
system.membus.snoop_filter.hit_multi_snoops            0                       # Number of snoops hitting in the snoop filter with multiple (>1) holders of the requested data.
system.membus.snoop_filter.hit_single_requests        68765                       # Number of requests hitting in the snoop filter with a single holder of the requested data.
system.membus.snoop_filter.hit_single_snoops            0                       # Number of snoops hitting in the snoop filter with a single holder of the requested data.
system.membus.snoop_filter.tot_requests        154620                       # Total number of requests made to the snoop filter.
system.membus.snoop_filter.tot_snoops               0                       # Total number of snoops made to the snoop filter.
system.tol2bus.snoop_filter.hit_multi_requests         1134                       # Number of requests hitting in the snoop filter with multiple (>1) holders of the requested data.
system.tol2bus.snoop_filter.hit_multi_snoops           14                       # Number of snoops hitting in the snoop filter with multiple (>1) holders of the requested data.
system.tol2bus.snoop_filter.hit_single_requests       250221                       # Number of requests hitting in the snoop filter with a single holder of the requested data.
system.tol2bus.snoop_filter.hit_single_snoops          942                       # Number of snoops hitting in the snoop filter with a single holder of the requested data.
system.tol2bus.snoop_filter.tot_requests       502187                       # Total number of requests made to the snoop filter.
system.tol2bus.snoop_filter.tot_snoops            956                       # Total number of snoops made to the snoop filter.
system.membus.pwrStateResidencyTicks::UNDEFINED  61291405500                       # Cumulative time (in ticks) in various power states
system.membus.trans_dist::ReadResp              14257                       # Transaction distribution
system.membus.trans_dist::WritebackDirty        68250                       # Transaction distribution
system.membus.trans_dist::CleanEvict              501                       # Transaction distribution
system.membus.trans_dist::ReadExReq             71612                       # Transaction distribution
system.membus.trans_dist::ReadExResp            71612                       # Transaction distribution
system.membus.trans_dist::ReadSharedReq         14257                       # Transaction distribution
system.membus.pkt_count_system.l2.mem_side::system.mem_ctrls.port       240489                       # Packet count per connected master and slave (bytes)
system.membus.pkt_count::total                 240489                       # Packet count per connected master and slave (bytes)
system.membus.pkt_size_system.l2.mem_side::system.mem_ctrls.port      4931808                       # Cumulative packet size per connected master and slave (bytes)
system.membus.pkt_size::total                 4931808                       # Cumulative packet size per connected master and slave (bytes)
system.membus.snoops                                0                       # Total snoops (count)
system.membus.snoopTraffic                          0                       # Total snoop traffic (bytes)
system.membus.snoop_fanout::samples             85869                       # Request fanout histogram
system.membus.snoop_fanout::mean                    0                       # Request fanout histogram
system.membus.snoop_fanout::stdev                   0                       # Request fanout histogram
system.membus.snoop_fanout::underflows              0      0.00%      0.00% # Request fanout histogram
system.membus.snoop_fanout::0                   85869    100.00%    100.00% # Request fanout histogram
system.membus.snoop_fanout::1                       0      0.00%    100.00% # Request fanout histogram
system.membus.snoop_fanout::overflows               0      0.00%    100.00% # Request fanout histogram
system.membus.snoop_fanout::min_value               0                       # Request fanout histogram
system.membus.snoop_fanout::max_value               0                       # Request fanout histogram
system.membus.snoop_fanout::total               85869                       # Request fanout histogram
system.membus.respLayer1.occupancy          286794000                       # Layer occupancy (ticks)
system.membus.respLayer1.utilization              0.5                       # Layer utilization (%)
system.membus.reqLayer0.occupancy           310174000                       # Layer occupancy (ticks)
system.membus.reqLayer0.utilization               0.5                       # Layer utilization (%)
system.tol2bus.pwrStateResidencyTicks::UNDEFINED  61291405500                       # Cumulative time (in ticks) in various power states
system.tol2bus.trans_dist::ReadResp            173363                       # Transaction distribution
system.tol2bus.trans_dist::WritebackDirty       217719                       # Transaction distribution
system.tol2bus.trans_dist::WritebackClean          758                       # Transaction distribution
system.tol2bus.trans_dist::CleanEvict          101368                       # Transaction distribution
system.tol2bus.trans_dist::ReadExReq            78607                       # Transaction distribution
system.tol2bus.trans_dist::ReadExResp           78607                       # Transaction distribution
system.tol2bus.trans_dist::ReadCleanReq          1487                       # Transaction distribution
system.tol2bus.trans_dist::ReadSharedReq       171876                       # Transaction distribution
system.tol2bus.pkt_count_system.cpu.icache.mem_side::system.l2.cpu_side         3732                       # Packet count per connected master and slave (bytes)
system.tol2bus.pkt_count_system.cpu.dcache.mem_side::system.l2.cpu_side       750425                       # Packet count per connected master and slave (bytes)
system.tol2bus.pkt_count::total                754157                       # Packet count per connected master and slave (bytes)
system.tol2bus.pkt_size_system.cpu.icache.mem_side::system.l2.cpu_side        71840                       # Cumulative packet size per connected master and slave (bytes)
system.tol2bus.pkt_size_system.cpu.dcache.mem_side::system.l2.cpu_side     12798464                       # Cumulative packet size per connected master and slave (bytes)
system.tol2bus.pkt_size::total               12870304                       # Cumulative packet size per connected master and slave (bytes)
system.tol2bus.snoops                           69628                       # Total snoops (count)
system.tol2bus.snoopTraffic                   2184000                       # Total snoop traffic (bytes)
system.tol2bus.snoop_fanout::samples           321598                       # Request fanout histogram
system.tol2bus.snoop_fanout::mean            0.006555                       # Request fanout histogram
system.tol2bus.snoop_fanout::stdev           0.081234                       # Request fanout histogram
system.tol2bus.snoop_fanout::underflows             0      0.00%      0.00% # Request fanout histogram
system.tol2bus.snoop_fanout::0                 319504     99.35%     99.35% # Request fanout histogram
system.tol2bus.snoop_fanout::1                   2080      0.65%    100.00% # Request fanout histogram
system.tol2bus.snoop_fanout::2                     14      0.00%    100.00% # Request fanout histogram
system.tol2bus.snoop_fanout::overflows              0      0.00%    100.00% # Request fanout histogram
system.tol2bus.snoop_fanout::min_value              0                       # Request fanout histogram
system.tol2bus.snoop_fanout::max_value              2                       # Request fanout histogram
system.tol2bus.snoop_fanout::total             321598                       # Request fanout histogram
system.tol2bus.reqLayer0.occupancy          326207000                       # Layer occupancy (ticks)
system.tol2bus.reqLayer0.utilization              0.5                       # Layer utilization (%)
system.tol2bus.respLayer1.occupancy         250483998                       # Layer occupancy (ticks)
system.tol2bus.respLayer1.utilization             0.4                       # Layer utilization (%)
system.tol2bus.respLayer0.occupancy           1487499                       # Layer occupancy (ticks)
system.tol2bus.respLayer0.utilization             0.0                       # Layer utilization (%)
system.voltage_domain.voltage                       1                       # Voltage in Volts
system.clk_domain.clock                          1000                       # Clock period in ticks
system.l2.pwrStateResidencyTicks::UNDEFINED  61291405500                       # Cumulative time (in ticks) in various power states
system.l2.demand_hits::.cpu.inst                  676                       # number of demand (read+write) hits
system.l2.demand_hits::.cpu.data               165422                       # number of demand (read+write) hits
system.l2.demand_hits::total                   166098                       # number of demand (read+write) hits
system.l2.overall_hits::.cpu.inst                 676                       # number of overall hits
system.l2.overall_hits::.cpu.data              165422                       # number of overall hits
system.l2.overall_hits::total                  166098                       # number of overall hits
system.l2.demand_misses::.cpu.inst                811                       # number of demand (read+write) misses
system.l2.demand_misses::.cpu.data              85061                       # number of demand (read+write) misses
system.l2.demand_misses::total                  85872                       # number of demand (read+write) misses
system.l2.overall_misses::.cpu.inst               811                       # number of overall misses
system.l2.overall_misses::.cpu.data             85061                       # number of overall misses
system.l2.overall_misses::total                 85872                       # number of overall misses
system.l2.demand_miss_latency::.cpu.inst     61254000                       # number of demand (read+write) miss cycles
system.l2.demand_miss_latency::.cpu.data   6832241000                       # number of demand (read+write) miss cycles
system.l2.demand_miss_latency::total       6893495000                       # number of demand (read+write) miss cycles
system.l2.overall_miss_latency::.cpu.inst     61254000                       # number of overall miss cycles
system.l2.overall_miss_latency::.cpu.data   6832241000                       # number of overall miss cycles
system.l2.overall_miss_latency::total      6893495000                       # number of overall miss cycles
system.l2.demand_accesses::.cpu.inst             1487                       # number of demand (read+write) accesses
system.l2.demand_accesses::.cpu.data           250483                       # number of demand (read+write) accesses
system.l2.demand_accesses::total               251970                       # number of demand (read+write) accesses
system.l2.overall_accesses::.cpu.inst            1487                       # number of overall (read+write) accesses
system.l2.overall_accesses::.cpu.data          250483                       # number of overall (read+write) accesses
system.l2.overall_accesses::total              251970                       # number of overall (read+write) accesses
system.l2.demand_miss_rate::.cpu.inst        0.545393                       # miss rate for demand accesses
system.l2.demand_miss_rate::.cpu.data        0.339588                       # miss rate for demand accesses
system.l2.demand_miss_rate::total            0.340802                       # miss rate for demand accesses
system.l2.overall_miss_rate::.cpu.inst       0.545393                       # miss rate for overall accesses
system.l2.overall_miss_rate::.cpu.data       0.339588                       # miss rate for overall accesses
system.l2.overall_miss_rate::total           0.340802                       # miss rate for overall accesses
system.l2.demand_avg_miss_latency::.cpu.inst 75528.976572                       # average overall miss latency
system.l2.demand_avg_miss_latency::.cpu.data 80321.663277                       # average overall miss latency
system.l2.demand_avg_miss_latency::total 80276.399758                       # average overall miss latency
system.l2.overall_avg_miss_latency::.cpu.inst 75528.976572                       # average overall miss latency
system.l2.overall_avg_miss_latency::.cpu.data 80321.663277                       # average overall miss latency
system.l2.overall_avg_miss_latency::total 80276.399758                       # average overall miss latency
system.l2.blocked_cycles::no_mshrs                  0                       # number of cycles access was blocked
system.l2.blocked_cycles::no_targets                0                       # number of cycles access was blocked
system.l2.blocked::no_mshrs                         0                       # number of cycles access was blocked
system.l2.blocked::no_targets                       0                       # number of cycles access was blocked
system.l2.avg_blocked_cycles::no_mshrs            nan                       # average number of cycles each access was blocked
system.l2.avg_blocked_cycles::no_targets          nan                       # average number of cycles each access was blocked
system.l2.writebacks::.writebacks               68250                       # number of writebacks
system.l2.writebacks::total                     68250                       # number of writebacks
system.l2.demand_mshr_hits::.cpu.inst               1                       # number of demand (read+write) MSHR hits
system.l2.demand_mshr_hits::.cpu.data               2                       # number of demand (read+write) MSHR hits
system.l2.demand_mshr_hits::total                   3                       # number of demand (read+write) MSHR hits
system.l2.overall_mshr_hits::.cpu.inst              1                       # number of overall MSHR hits
system.l2.overall_mshr_hits::.cpu.data              2                       # number of overall MSHR hits
system.l2.overall_mshr_hits::total                  3                       # number of overall MSHR hits
system.l2.demand_mshr_misses::.cpu.inst           810                       # number of demand (read+write) MSHR misses
system.l2.demand_mshr_misses::.cpu.data         85059                       # number of demand (read+write) MSHR misses
system.l2.demand_mshr_misses::total             85869                       # number of demand (read+write) MSHR misses
system.l2.overall_mshr_misses::.cpu.inst          810                       # number of overall MSHR misses
system.l2.overall_mshr_misses::.cpu.data        85059                       # number of overall MSHR misses
system.l2.overall_mshr_misses::total            85869                       # number of overall MSHR misses
system.l2.demand_mshr_miss_latency::.cpu.inst     53122500                       # number of demand (read+write) MSHR miss cycles
system.l2.demand_mshr_miss_latency::.cpu.data   5981515000                       # number of demand (read+write) MSHR miss cycles
system.l2.demand_mshr_miss_latency::total   6034637500                       # number of demand (read+write) MSHR miss cycles
system.l2.overall_mshr_miss_latency::.cpu.inst     53122500                       # number of overall MSHR miss cycles
system.l2.overall_mshr_miss_latency::.cpu.data   5981515000                       # number of overall MSHR miss cycles
system.l2.overall_mshr_miss_latency::total   6034637500                       # number of overall MSHR miss cycles
system.l2.demand_mshr_miss_rate::.cpu.inst     0.544721                       # mshr miss rate for demand accesses
system.l2.demand_mshr_miss_rate::.cpu.data     0.339580                       # mshr miss rate for demand accesses
system.l2.demand_mshr_miss_rate::total       0.340791                       # mshr miss rate for demand accesses
system.l2.overall_mshr_miss_rate::.cpu.inst     0.544721                       # mshr miss rate for overall accesses
system.l2.overall_mshr_miss_rate::.cpu.data     0.339580                       # mshr miss rate for overall accesses
system.l2.overall_mshr_miss_rate::total      0.340791                       # mshr miss rate for overall accesses
system.l2.demand_avg_mshr_miss_latency::.cpu.inst 65583.333333                       # average overall mshr miss latency
system.l2.demand_avg_mshr_miss_latency::.cpu.data 70321.952997                       # average overall mshr miss latency
system.l2.demand_avg_mshr_miss_latency::total 70277.253724                       # average overall mshr miss latency
system.l2.overall_avg_mshr_miss_latency::.cpu.inst 65583.333333                       # average overall mshr miss latency
system.l2.overall_avg_mshr_miss_latency::.cpu.data 70321.952997                       # average overall mshr miss latency
system.l2.overall_avg_mshr_miss_latency::total 70277.253724                       # average overall mshr miss latency
system.l2.replacements                          69628                       # number of replacements
system.l2.WritebackDirty_hits::.writebacks       149469                       # number of WritebackDirty hits
system.l2.WritebackDirty_hits::total           149469                       # number of WritebackDirty hits
system.l2.WritebackDirty_accesses::.writebacks       149469                       # number of WritebackDirty accesses(hits+misses)
system.l2.WritebackDirty_accesses::total       149469                       # number of WritebackDirty accesses(hits+misses)
system.l2.WritebackClean_hits::.writebacks          756                       # number of WritebackClean hits
system.l2.WritebackClean_hits::total              756                       # number of WritebackClean hits
system.l2.WritebackClean_accesses::.writebacks          756                       # number of WritebackClean accesses(hits+misses)
system.l2.WritebackClean_accesses::total          756                       # number of WritebackClean accesses(hits+misses)
system.l2.CleanEvict_mshr_misses::.writebacks           79                       # number of CleanEvict MSHR misses
system.l2.CleanEvict_mshr_misses::total            79                       # number of CleanEvict MSHR misses
system.l2.CleanEvict_mshr_miss_rate::.writebacks          inf                       # mshr miss rate for CleanEvict accesses
system.l2.CleanEvict_mshr_miss_rate::total          inf                       # mshr miss rate for CleanEvict accesses
system.l2.ReadExReq_hits::.cpu.data              6995                       # number of ReadExReq hits
system.l2.ReadExReq_hits::total                  6995                       # number of ReadExReq hits
system.l2.ReadExReq_misses::.cpu.data           71612                       # number of ReadExReq misses
system.l2.ReadExReq_misses::total               71612                       # number of ReadExReq misses
system.l2.ReadExReq_miss_latency::.cpu.data   5670252000                       # number of ReadExReq miss cycles
system.l2.ReadExReq_miss_latency::total    5670252000                       # number of ReadExReq miss cycles
system.l2.ReadExReq_accesses::.cpu.data         78607                       # number of ReadExReq accesses(hits+misses)
system.l2.ReadExReq_accesses::total             78607                       # number of ReadExReq accesses(hits+misses)
system.l2.ReadExReq_miss_rate::.cpu.data     0.911013                       # miss rate for ReadExReq accesses
system.l2.ReadExReq_miss_rate::total         0.911013                       # miss rate for ReadExReq accesses
system.l2.ReadExReq_avg_miss_latency::.cpu.data 79180.193264                       # average ReadExReq miss latency
system.l2.ReadExReq_avg_miss_latency::total 79180.193264                       # average ReadExReq miss latency
system.l2.ReadExReq_mshr_misses::.cpu.data        71612                       # number of ReadExReq MSHR misses
system.l2.ReadExReq_mshr_misses::total          71612                       # number of ReadExReq MSHR misses
system.l2.ReadExReq_mshr_miss_latency::.cpu.data   4954132000                       # number of ReadExReq MSHR miss cycles
system.l2.ReadExReq_mshr_miss_latency::total   4954132000                       # number of ReadExReq MSHR miss cycles
system.l2.ReadExReq_mshr_miss_rate::.cpu.data     0.911013                       # mshr miss rate for ReadExReq accesses
system.l2.ReadExReq_mshr_miss_rate::total     0.911013                       # mshr miss rate for ReadExReq accesses
system.l2.ReadExReq_avg_mshr_miss_latency::.cpu.data 69180.193264                       # average ReadExReq mshr miss latency
system.l2.ReadExReq_avg_mshr_miss_latency::total 69180.193264                       # average ReadExReq mshr miss latency
system.l2.ReadCleanReq_hits::.cpu.inst            676                       # number of ReadCleanReq hits
system.l2.ReadCleanReq_hits::total                676                       # number of ReadCleanReq hits
system.l2.ReadCleanReq_misses::.cpu.inst          811                       # number of ReadCleanReq misses
system.l2.ReadCleanReq_misses::total              811                       # number of ReadCleanReq misses
system.l2.ReadCleanReq_miss_latency::.cpu.inst     61254000                       # number of ReadCleanReq miss cycles
system.l2.ReadCleanReq_miss_latency::total     61254000                       # number of ReadCleanReq miss cycles
system.l2.ReadCleanReq_accesses::.cpu.inst         1487                       # number of ReadCleanReq accesses(hits+misses)
system.l2.ReadCleanReq_accesses::total           1487                       # number of ReadCleanReq accesses(hits+misses)
system.l2.ReadCleanReq_miss_rate::.cpu.inst     0.545393                       # miss rate for ReadCleanReq accesses
system.l2.ReadCleanReq_miss_rate::total      0.545393                       # miss rate for ReadCleanReq accesses
system.l2.ReadCleanReq_avg_miss_latency::.cpu.inst 75528.976572                       # average ReadCleanReq miss latency
system.l2.ReadCleanReq_avg_miss_latency::total 75528.976572                       # average ReadCleanReq miss latency
system.l2.ReadCleanReq_mshr_hits::.cpu.inst            1                       # number of ReadCleanReq MSHR hits
system.l2.ReadCleanReq_mshr_hits::total             1                       # number of ReadCleanReq MSHR hits
system.l2.ReadCleanReq_mshr_misses::.cpu.inst          810                       # number of ReadCleanReq MSHR misses
system.l2.ReadCleanReq_mshr_misses::total          810                       # number of ReadCleanReq MSHR misses
system.l2.ReadCleanReq_mshr_miss_latency::.cpu.inst     53122500                       # number of ReadCleanReq MSHR miss cycles
system.l2.ReadCleanReq_mshr_miss_latency::total     53122500                       # number of ReadCleanReq MSHR miss cycles
system.l2.ReadCleanReq_mshr_miss_rate::.cpu.inst     0.544721                       # mshr miss rate for ReadCleanReq accesses
system.l2.ReadCleanReq_mshr_miss_rate::total     0.544721                       # mshr miss rate for ReadCleanReq accesses
system.l2.ReadCleanReq_avg_mshr_miss_latency::.cpu.inst 65583.333333                       # average ReadCleanReq mshr miss latency
system.l2.ReadCleanReq_avg_mshr_miss_latency::total 65583.333333                       # average ReadCleanReq mshr miss latency
system.l2.ReadSharedReq_hits::.cpu.data        158427                       # number of ReadSharedReq hits
system.l2.ReadSharedReq_hits::total            158427                       # number of ReadSharedReq hits
system.l2.ReadSharedReq_misses::.cpu.data        13449                       # number of ReadSharedReq misses
system.l2.ReadSharedReq_misses::total           13449                       # number of ReadSharedReq misses
system.l2.ReadSharedReq_miss_latency::.cpu.data   1161989000                       # number of ReadSharedReq miss cycles
system.l2.ReadSharedReq_miss_latency::total   1161989000                       # number of ReadSharedReq miss cycles
system.l2.ReadSharedReq_accesses::.cpu.data       171876                       # number of ReadSharedReq accesses(hits+misses)
system.l2.ReadSharedReq_accesses::total        171876                       # number of ReadSharedReq accesses(hits+misses)
system.l2.ReadSharedReq_miss_rate::.cpu.data     0.078248                       # miss rate for ReadSharedReq accesses
system.l2.ReadSharedReq_miss_rate::total     0.078248                       # miss rate for ReadSharedReq accesses
system.l2.ReadSharedReq_avg_miss_latency::.cpu.data 86399.657967                       # average ReadSharedReq miss latency
system.l2.ReadSharedReq_avg_miss_latency::total 86399.657967                       # average ReadSharedReq miss latency
system.l2.ReadSharedReq_mshr_hits::.cpu.data            2                       # number of ReadSharedReq MSHR hits
system.l2.ReadSharedReq_mshr_hits::total            2                       # number of ReadSharedReq MSHR hits
system.l2.ReadSharedReq_mshr_misses::.cpu.data        13447                       # number of ReadSharedReq MSHR misses
system.l2.ReadSharedReq_mshr_misses::total        13447                       # number of ReadSharedReq MSHR misses
system.l2.ReadSharedReq_mshr_miss_latency::.cpu.data   1027383000                       # number of ReadSharedReq MSHR miss cycles
system.l2.ReadSharedReq_mshr_miss_latency::total   1027383000                       # number of ReadSharedReq MSHR miss cycles
system.l2.ReadSharedReq_mshr_miss_rate::.cpu.data     0.078237                       # mshr miss rate for ReadSharedReq accesses
system.l2.ReadSharedReq_mshr_miss_rate::total     0.078237                       # mshr miss rate for ReadSharedReq accesses
system.l2.ReadSharedReq_avg_mshr_miss_latency::.cpu.data 76402.394586                       # average ReadSharedReq mshr miss latency
system.l2.ReadSharedReq_avg_mshr_miss_latency::total 76402.394586                       # average ReadSharedReq mshr miss latency
system.l2.tags.pwrStateResidencyTicks::UNDEFINED  61291405500                       # Cumulative time (in ticks) in various power states
system.l2.tags.tagsinuse                 15859.919349                       # Cycle average of tags in use
system.l2.tags.total_refs                      500971                       # Total number of references to valid blocks.
system.l2.tags.sampled_refs                     86012                       # Sample count of references to valid blocks.
system.l2.tags.avg_refs                      5.824431                       # Average number of references to valid blocks.
system.l2.tags.warmup_cycle                     77000                       # Cycle when the warmup percentage was hit.
system.l2.tags.occ_blocks::.writebacks      23.134484                       # Average occupied blocks per requestor
system.l2.tags.occ_blocks::.cpu.inst        40.022883                       # Average occupied blocks per requestor
system.l2.tags.occ_blocks::.cpu.data     15796.761983                       # Average occupied blocks per requestor
system.l2.tags.occ_percent::.writebacks      0.001412                       # Average percentage of cache occupancy
system.l2.tags.occ_percent::.cpu.inst        0.002443                       # Average percentage of cache occupancy
system.l2.tags.occ_percent::.cpu.data        0.964158                       # Average percentage of cache occupancy
system.l2.tags.occ_percent::total            0.968013                       # Average percentage of cache occupancy
system.l2.tags.occ_task_id_blocks::1024         16384                       # Occupied blocks per task id
system.l2.tags.age_task_id_blocks_1024::0            7                       # Occupied blocks per task id
system.l2.tags.age_task_id_blocks_1024::1           66                       # Occupied blocks per task id
system.l2.tags.age_task_id_blocks_1024::2          867                       # Occupied blocks per task id
system.l2.tags.age_task_id_blocks_1024::3         7667                       # Occupied blocks per task id
system.l2.tags.age_task_id_blocks_1024::4         7777                       # Occupied blocks per task id
system.l2.tags.occ_task_id_percent::1024            1                       # Percentage of cache occupancy per task id
system.l2.tags.tag_accesses                   1088118                       # Number of tag accesses
system.l2.tags.data_accesses                  1088118                       # Number of data accesses
system.cpu_voltage_domain.voltage                   1                       # Voltage in Volts
system.mem_ctrls.pwrStateResidencyTicks::UNDEFINED  61291405500                       # Cumulative time (in ticks) in various power states
system.mem_ctrls.bytes_read::.cpu.inst          25920                       # Number of bytes read from this memory
system.mem_ctrls.bytes_read::.cpu.data        2721888                       # Number of bytes read from this memory
system.mem_ctrls.bytes_read::total            2747808                       # Number of bytes read from this memory
system.mem_ctrls.bytes_inst_read::.cpu.inst        25920                       # Number of instructions bytes read from this memory
system.mem_ctrls.bytes_inst_read::total         25920                       # Number of instructions bytes read from this memory
system.mem_ctrls.bytes_written::.writebacks      2184000                       # Number of bytes written to this memory
system.mem_ctrls.bytes_written::total         2184000                       # Number of bytes written to this memory
system.mem_ctrls.num_reads::.cpu.inst             810                       # Number of read requests responded to by this memory
system.mem_ctrls.num_reads::.cpu.data           85059                       # Number of read requests responded to by this memory
system.mem_ctrls.num_reads::total               85869                       # Number of read requests responded to by this memory
system.mem_ctrls.num_writes::.writebacks        68250                       # Number of write requests responded to by this memory
system.mem_ctrls.num_writes::total              68250                       # Number of write requests responded to by this memory
system.mem_ctrls.bw_read::.cpu.inst            422898                       # Total read bandwidth from this memory (bytes/s)
system.mem_ctrls.bw_read::.cpu.data          44408967                       # Total read bandwidth from this memory (bytes/s)
system.mem_ctrls.bw_read::total              44831865                       # Total read bandwidth from this memory (bytes/s)
system.mem_ctrls.bw_inst_read::.cpu.inst       422898                       # Instruction read bandwidth from this memory (bytes/s)
system.mem_ctrls.bw_inst_read::total           422898                       # Instruction read bandwidth from this memory (bytes/s)
system.mem_ctrls.bw_write::.writebacks       35633055                       # Write bandwidth from this memory (bytes/s)
system.mem_ctrls.bw_write::total             35633055                       # Write bandwidth from this memory (bytes/s)
system.mem_ctrls.bw_total::.writebacks       35633055                       # Total bandwidth to/from this memory (bytes/s)
system.mem_ctrls.bw_total::.cpu.inst           422898                       # Total bandwidth to/from this memory (bytes/s)
system.mem_ctrls.bw_total::.cpu.data         44408967                       # Total bandwidth to/from this memory (bytes/s)
system.mem_ctrls.bw_total::total             80464919                       # Total bandwidth to/from this memory (bytes/s)
system.mem_ctrls.avgPriority_.writebacks::samples     46672.00                       # Average QoS priority value for accepted requests
system.mem_ctrls.avgPriority_.cpu.inst::samples       810.00                       # Average QoS priority value for accepted requests
system.mem_ctrls.avgPriority_.cpu.data::samples     85044.00                       # Average QoS priority value for accepted requests
system.mem_ctrls.priorityMinLatency      0.000000018750                       # per QoS priority minimum request to response latency (s)
system.mem_ctrls.priorityMaxLatency      0.001730234500                       # per QoS priority maximum request to response latency (s)
system.mem_ctrls.numReadWriteTurnArounds         2643                       # Number of turnarounds from READ to WRITE
system.mem_ctrls.numWriteReadTurnArounds         2643                       # Number of turnarounds from WRITE to READ
system.mem_ctrls.numStayReadState              254073                       # Number of times bus staying in READ state
system.mem_ctrls.numStayWriteState              44075                       # Number of times bus staying in WRITE state
system.mem_ctrls.readReqs                       85869                       # Number of read requests accepted
system.mem_ctrls.writeReqs                      68250                       # Number of write requests accepted
system.mem_ctrls.readBursts                     85869                       # Number of DRAM read bursts, including those serviced by the write queue
system.mem_ctrls.writeBursts                    68250                       # Number of DRAM write bursts, including those merged in the write queue
system.mem_ctrls.servicedByWrQ                     15                       # Number of DRAM read bursts serviced by the write queue
system.mem_ctrls.mergedWrBursts                 21578                       # Number of DRAM write bursts merged with an existing one
system.mem_ctrls.neitherReadNorWriteReqs            0                       # Number of requests that are neither read nor write
system.mem_ctrls.perBankRdBursts::0              5321                       # Per bank write bursts
system.mem_ctrls.perBankRdBursts::1              5081                       # Per bank write bursts
system.mem_ctrls.perBankRdBursts::2              5031                       # Per bank write bursts
system.mem_ctrls.perBankRdBursts::3              5646                       # Per bank write bursts
system.mem_ctrls.perBankRdBursts::4              5977                       # Per bank write bursts
system.mem_ctrls.perBankRdBursts::5              5296                       # Per bank write bursts
system.mem_ctrls.perBankRdBursts::6              5303                       # Per bank write bursts
system.mem_ctrls.perBankRdBursts::7              5332                       # Per bank write bursts
system.mem_ctrls.perBankRdBursts::8              5324                       # Per bank write bursts
system.mem_ctrls.perBankRdBursts::9              5358                       # Per bank write bursts
system.mem_ctrls.perBankRdBursts::10             5346                       # Per bank write bursts
system.mem_ctrls.perBankRdBursts::11             5373                       # Per bank write bursts
system.mem_ctrls.perBankRdBursts::12             5365                       # Per bank write bursts
system.mem_ctrls.perBankRdBursts::13             5316                       # Per bank write bursts
system.mem_ctrls.perBankRdBursts::14             5445                       # Per bank write bursts
system.mem_ctrls.perBankRdBursts::15             5340                       # Per bank write bursts
system.mem_ctrls.perBankWrBursts::0              2882                       # Per bank write bursts
system.mem_ctrls.perBankWrBursts::1              2757                       # Per bank write bursts
system.mem_ctrls.perBankWrBursts::2              2708                       # Per bank write bursts
system.mem_ctrls.perBankWrBursts::3              2953                       # Per bank write bursts
system.mem_ctrls.perBankWrBursts::4              3201                       # Per bank write bursts
system.mem_ctrls.perBankWrBursts::5              2920                       # Per bank write bursts
system.mem_ctrls.perBankWrBursts::6              2940                       # Per bank write bursts
system.mem_ctrls.perBankWrBursts::7              2894                       # Per bank write bursts
system.mem_ctrls.perBankWrBursts::8              2917                       # Per bank write bursts
system.mem_ctrls.perBankWrBursts::9              2871                       # Per bank write bursts
system.mem_ctrls.perBankWrBursts::10             2907                       # Per bank write bursts
system.mem_ctrls.perBankWrBursts::11             2908                       # Per bank write bursts
system.mem_ctrls.perBankWrBursts::12             2984                       # Per bank write bursts
system.mem_ctrls.perBankWrBursts::13             2911                       # Per bank write bursts
system.mem_ctrls.perBankWrBursts::14             2941                       # Per bank write bursts
system.mem_ctrls.perBankWrBursts::15             2958                       # Per bank write bursts
system.mem_ctrls.avgRdQLen                       1.12                       # Average read queue length when enqueuing
system.mem_ctrls.avgWrQLen                      24.09                       # Average write queue length when enqueuing
system.mem_ctrls.totQLat                    899059500                       # Total ticks spent queuing
system.mem_ctrls.totBusLat                  429270000                       # Total ticks spent in databus transfers
system.mem_ctrls.totMemAccLat              2508822000                       # Total ticks spent from burst creation until serviced by the DRAM
system.mem_ctrls.avgQLat                     10471.96                       # Average queueing delay per DRAM burst
system.mem_ctrls.avgBusLat                    5000.00                       # Average bus latency per DRAM burst
system.mem_ctrls.avgMemAccLat                29221.96                       # Average memory access latency per DRAM burst
system.mem_ctrls.numRdRetry                         0                       # Number of times read queue was full causing retry
system.mem_ctrls.numWrRetry                         0                       # Number of times write queue was full causing retry
system.mem_ctrls.readRowHits                    64196                       # Number of row buffer hits during reads
system.mem_ctrls.writeRowHits                   36218                       # Number of row buffer hits during writes
system.mem_ctrls.readRowHitRate                 74.77                       # Row buffer hit rate for reads
system.mem_ctrls.writeRowHitRate                77.60                       # Row buffer hit rate for writes
system.mem_ctrls.readPktSize::0                     0                       # Read request sizes (log2)
system.mem_ctrls.readPktSize::1                     0                       # Read request sizes (log2)
system.mem_ctrls.readPktSize::2                     0                       # Read request sizes (log2)
system.mem_ctrls.readPktSize::3                     0                       # Read request sizes (log2)
system.mem_ctrls.readPktSize::4                     0                       # Read request sizes (log2)
system.mem_ctrls.readPktSize::5                 85869                       # Read request sizes (log2)
system.mem_ctrls.readPktSize::6                     0                       # Read request sizes (log2)
system.mem_ctrls.writePktSize::0                    0                       # Write request sizes (log2)
system.mem_ctrls.writePktSize::1                    0                       # Write request sizes (log2)
system.mem_ctrls.writePktSize::2                    0                       # Write request sizes (log2)
system.mem_ctrls.writePktSize::3                    0                       # Write request sizes (log2)
system.mem_ctrls.writePktSize::4                    0                       # Write request sizes (log2)
system.mem_ctrls.writePktSize::5                68250                       # Write request sizes (log2)
system.mem_ctrls.writePktSize::6                    0                       # Write request sizes (log2)
system.mem_ctrls.rdQLenPdf::0                   72608                       # What read queue length does an incoming req see
system.mem_ctrls.rdQLenPdf::1                   13227                       # What read queue length does an incoming req see
system.mem_ctrls.rdQLenPdf::2                      19                       # What read queue length does an incoming req see
system.mem_ctrls.rdQLenPdf::3                       0                       # What read queue length does an incoming req see
system.mem_ctrls.rdQLenPdf::4                       0                       # What read queue length does an incoming req see
system.mem_ctrls.rdQLenPdf::5                       0                       # What read queue length does an incoming req see
system.mem_ctrls.rdQLenPdf::6                       0                       # What read queue length does an incoming req see
system.mem_ctrls.rdQLenPdf::7                       0                       # What read queue length does an incoming req see
system.mem_ctrls.rdQLenPdf::8                       0                       # What read queue length does an incoming req see
system.mem_ctrls.rdQLenPdf::9                       0                       # What read queue length does an incoming req see
system.mem_ctrls.rdQLenPdf::10                      0                       # What read queue length does an incoming req see
system.mem_ctrls.rdQLenPdf::11                      0                       # What read queue length does an incoming req see
system.mem_ctrls.rdQLenPdf::12                      0                       # What read queue length does an incoming req see
system.mem_ctrls.rdQLenPdf::13                      0                       # What read queue length does an incoming req see
system.mem_ctrls.rdQLenPdf::14                      0                       # What read queue length does an incoming req see
system.mem_ctrls.rdQLenPdf::15                      0                       # What read queue length does an incoming req see
system.mem_ctrls.rdQLenPdf::16                      0                       # What read queue length does an incoming req see
system.mem_ctrls.rdQLenPdf::17                      0                       # What read queue length does an incoming req see
system.mem_ctrls.rdQLenPdf::18                      0                       # What read queue length does an incoming req see
system.mem_ctrls.rdQLenPdf::19                      0                       # What read queue length does an incoming req see
system.mem_ctrls.rdQLenPdf::20                      0                       # What read queue length does an incoming req see
system.mem_ctrls.rdQLenPdf::21                      0                       # What read queue length does an incoming req see
system.mem_ctrls.rdQLenPdf::22                      0                       # What read queue length does an incoming req see
system.mem_ctrls.rdQLenPdf::23                      0                       # What read queue length does an incoming req see
system.mem_ctrls.rdQLenPdf::24                      0                       # What read queue length does an incoming req see
system.mem_ctrls.rdQLenPdf::25                      0                       # What read queue length does an incoming req see
system.mem_ctrls.rdQLenPdf::26                      0                       # What read queue length does an incoming req see
system.mem_ctrls.rdQLenPdf::27                      0                       # What read queue length does an incoming req see
system.mem_ctrls.rdQLenPdf::28                      0                       # What read queue length does an incoming req see
system.mem_ctrls.rdQLenPdf::29                      0                       # What read queue length does an incoming req see
system.mem_ctrls.rdQLenPdf::30                      0                       # What read queue length does an incoming req see
system.mem_ctrls.rdQLenPdf::31                      0                       # What read queue length does an incoming req see
system.mem_ctrls.wrQLenPdf::0                       1                       # What write queue length does an incoming req see
system.mem_ctrls.wrQLenPdf::1                       1                       # What write queue length does an incoming req see
system.mem_ctrls.wrQLenPdf::2                       1                       # What write queue length does an incoming req see
system.mem_ctrls.wrQLenPdf::3                       1                       # What write queue length does an incoming req see
system.mem_ctrls.wrQLenPdf::4                       1                       # What write queue length does an incoming req see
system.mem_ctrls.wrQLenPdf::5                       1                       # What write queue length does an incoming req see
system.mem_ctrls.wrQLenPdf::6                       1                       # What write queue length does an incoming req see
system.mem_ctrls.wrQLenPdf::7                       1                       # What write queue length does an incoming req see
system.mem_ctrls.wrQLenPdf::8                       1                       # What write queue length does an incoming req see
system.mem_ctrls.wrQLenPdf::9                       1                       # What write queue length does an incoming req see
system.mem_ctrls.wrQLenPdf::10                      1                       # What write queue length does an incoming req see
system.mem_ctrls.wrQLenPdf::11                      1                       # What write queue length does an incoming req see
system.mem_ctrls.wrQLenPdf::12                      1                       # What write queue length does an incoming req see
system.mem_ctrls.wrQLenPdf::13                      1                       # What write queue length does an incoming req see
system.mem_ctrls.wrQLenPdf::14                      1                       # What write queue length does an incoming req see
system.mem_ctrls.wrQLenPdf::15                   2043                       # What write queue length does an incoming req see
system.mem_ctrls.wrQLenPdf::16                   2043                       # What write queue length does an incoming req see
system.mem_ctrls.wrQLenPdf::17                   2629                       # What write queue length does an incoming req see
system.mem_ctrls.wrQLenPdf::18                   2647                       # What write queue length does an incoming req see
system.mem_ctrls.wrQLenPdf::19                   2644                       # What write queue length does an incoming req see
system.mem_ctrls.wrQLenPdf::20                   2644                       # What write queue length does an incoming req see
system.mem_ctrls.wrQLenPdf::21                   2649                       # What write queue length does an incoming req see
system.mem_ctrls.wrQLenPdf::22                   2651                       # What write queue length does an incoming req see
system.mem_ctrls.wrQLenPdf::23                   2655                       # What write queue length does an incoming req see
system.mem_ctrls.wrQLenPdf::24                   2697                       # What write queue length does an incoming req see
system.mem_ctrls.wrQLenPdf::25                   2659                       # What write queue length does an incoming req see
system.mem_ctrls.wrQLenPdf::26                   2721                       # What write queue length does an incoming req see
system.mem_ctrls.wrQLenPdf::27                   2678                       # What write queue length does an incoming req see
system.mem_ctrls.wrQLenPdf::28                   2667                       # What write queue length does an incoming req see
system.mem_ctrls.wrQLenPdf::29                   2680                       # What write queue length does an incoming req see
system.mem_ctrls.wrQLenPdf::30                   2655                       # What write queue length does an incoming req see
system.mem_ctrls.wrQLenPdf::31                   2648                       # What write queue length does an incoming req see
system.mem_ctrls.wrQLenPdf::32                   2643                       # What write queue length does an incoming req see
system.mem_ctrls.wrQLenPdf::33                      4                       # What write queue length does an incoming req see
system.mem_ctrls.wrQLenPdf::34                      0                       # What write queue length does an incoming req see
system.mem_ctrls.wrQLenPdf::35                      0                       # What write queue length does an incoming req see
system.mem_ctrls.wrQLenPdf::36                      0                       # What write queue length does an incoming req see
system.mem_ctrls.wrQLenPdf::37                      0                       # What write queue length does an incoming req see
system.mem_ctrls.wrQLenPdf::38                      0                       # What write queue length does an incoming req see
system.mem_ctrls.wrQLenPdf::39                      0                       # What write queue length does an incoming req see
system.mem_ctrls.wrQLenPdf::40                      0                       # What write queue length does an incoming req see
system.mem_ctrls.wrQLenPdf::41                      0                       # What write queue length does an incoming req see
system.mem_ctrls.wrQLenPdf::42                      0                       # What write queue length does an incoming req see
system.mem_ctrls.wrQLenPdf::43                      0                       # What write queue length does an incoming req see
system.mem_ctrls.wrQLenPdf::44                      0                       # What write queue length does an incoming req see
system.mem_ctrls.wrQLenPdf::45                      0                       # What write queue length does an incoming req see
system.mem_ctrls.wrQLenPdf::46                      0                       # What write queue length does an incoming req see
system.mem_ctrls.wrQLenPdf::47                      0                       # What write queue length does an incoming req see
system.mem_ctrls.wrQLenPdf::48                      0                       # What write queue length does an incoming req see
system.mem_ctrls.wrQLenPdf::49                      0                       # What write queue length does an incoming req see
system.mem_ctrls.wrQLenPdf::50                      0                       # What write queue length does an incoming req see
system.mem_ctrls.wrQLenPdf::51                      0                       # What write queue length does an incoming req see
system.mem_ctrls.wrQLenPdf::52                      0                       # What write queue length does an incoming req see
system.mem_ctrls.wrQLenPdf::53                      0                       # What write queue length does an incoming req see
system.mem_ctrls.wrQLenPdf::54                      0                       # What write queue length does an incoming req see
system.mem_ctrls.wrQLenPdf::55                      0                       # What write queue length does an incoming req see
system.mem_ctrls.wrQLenPdf::56                      0                       # What write queue length does an incoming req see
system.mem_ctrls.wrQLenPdf::57                      0                       # What write queue length does an incoming req see
system.mem_ctrls.wrQLenPdf::58                      0                       # What write queue length does an incoming req see
system.mem_ctrls.wrQLenPdf::59                      0                       # What write queue length does an incoming req see
system.mem_ctrls.wrQLenPdf::60                      0                       # What write queue length does an incoming req see
system.mem_ctrls.wrQLenPdf::61                      0                       # What write queue length does an incoming req see
system.mem_ctrls.wrQLenPdf::62                      0                       # What write queue length does an incoming req see
system.mem_ctrls.wrQLenPdf::63                      0                       # What write queue length does an incoming req see
system.mem_ctrls.bytesPerActivate::samples        32091                       # Bytes accessed per row activation
system.mem_ctrls.bytesPerActivate::mean    264.252532                       # Bytes accessed per row activation
system.mem_ctrls.bytesPerActivate::gmean   171.288206                       # Bytes accessed per row activation
system.mem_ctrls.bytesPerActivate::stdev   254.522987                       # Bytes accessed per row activation
system.mem_ctrls.bytesPerActivate::0-127        12566     39.16%     39.16% # Bytes accessed per row activation
system.mem_ctrls.bytesPerActivate::128-255         5992     18.67%     57.83% # Bytes accessed per row activation
system.mem_ctrls.bytesPerActivate::256-383         3777     11.77%     69.60% # Bytes accessed per row activation
system.mem_ctrls.bytesPerActivate::384-511         4666     14.54%     84.14% # Bytes accessed per row activation
system.mem_ctrls.bytesPerActivate::512-639         1892      5.90%     90.03% # Bytes accessed per row activation
system.mem_ctrls.bytesPerActivate::640-767          845      2.63%     92.67% # Bytes accessed per row activation
system.mem_ctrls.bytesPerActivate::768-895          504      1.57%     94.24% # Bytes accessed per row activation
system.mem_ctrls.bytesPerActivate::896-1023          823      2.56%     96.80% # Bytes accessed per row activation
system.mem_ctrls.bytesPerActivate::1024-1151         1026      3.20%    100.00% # Bytes accessed per row activation
system.mem_ctrls.bytesPerActivate::total        32091                       # Bytes accessed per row activation
system.mem_ctrls.rdPerTurnAround::samples         2643                       # Reads before turning the bus around for writes
system.mem_ctrls.rdPerTurnAround::mean      32.480893                       # Reads before turning the bus around for writes
system.mem_ctrls.rdPerTurnAround::gmean     26.990384                       # Reads before turning the bus around for writes
system.mem_ctrls.rdPerTurnAround::stdev    144.000499                       # Reads before turning the bus around for writes
system.mem_ctrls.rdPerTurnAround::0-255          2637     99.77%     99.77% # Reads before turning the bus around for writes
system.mem_ctrls.rdPerTurnAround::256-511            2      0.08%     99.85% # Reads before turning the bus around for writes
[...]
system.cpu.icache.tags.occ_percent::total     0.355242                       # Average percentage of cache occupancy
system.cpu.icache.tags.occ_task_id_blocks::1024          729                       # Occupied blocks per task id
system.cpu.icache.tags.age_task_id_blocks_1024::2            5                       # Occupied blocks per task id
system.cpu.icache.tags.age_task_id_blocks_1024::4          724                       # Occupied blocks per task id
system.cpu.icache.tags.occ_task_id_percent::1024     0.355957                       # Percentage of cache occupancy per task id
system.cpu.icache.tags.tag_accesses          31086677                       # Number of tag accesses
system.cpu.icache.tags.data_accesses         31086677                       # Number of data accesses
system.cpu.dtb.walker.pwrStateResidencyTicks::UNDEFINED  61291405500                       # Cumulative time (in ticks) in various power states
system.cpu.dtb.stage2_mmu.stage2_tlb.walker.pwrStateResidencyTicks::UNDEFINED  61291405500                       # Cumulative time (in ticks) in various power states
system.cpu.dcache.pwrStateResidencyTicks::UNDEFINED  61291405500                       # Cumulative time (in ticks) in various power states
system.cpu.dcache.demand_hits::.cpu.data     35591267                       # number of demand (read+write) hits
system.cpu.dcache.demand_hits::total         35591267                       # number of demand (read+write) hits
system.cpu.dcache.overall_hits::.cpu.data     35594553                       # number of overall hits
system.cpu.dcache.overall_hits::total        35594553                       # number of overall hits
system.cpu.dcache.demand_misses::.cpu.data       286228                       # number of demand (read+write) misses
system.cpu.dcache.demand_misses::total         286228                       # number of demand (read+write) misses
system.cpu.dcache.overall_misses::.cpu.data       286303                       # number of overall misses
system.cpu.dcache.overall_misses::total        286303                       # number of overall misses
system.cpu.dcache.demand_miss_latency::.cpu.data  10575570000                       # number of demand (read+write) miss cycles
system.cpu.dcache.demand_miss_latency::total  10575570000                       # number of demand (read+write) miss cycles
system.cpu.dcache.overall_miss_latency::.cpu.data  10575570000                       # number of overall miss cycles
system.cpu.dcache.overall_miss_latency::total  10575570000                       # number of overall miss cycles
system.cpu.dcache.demand_accesses::.cpu.data     35877495                       # number of demand (read+write) accesses
system.cpu.dcache.demand_accesses::total     35877495                       # number of demand (read+write) accesses
system.cpu.dcache.overall_accesses::.cpu.data     35880856                       # number of overall (read+write) accesses
system.cpu.dcache.overall_accesses::total     35880856                       # number of overall (read+write) accesses
system.cpu.dcache.demand_miss_rate::.cpu.data     0.007978                       # miss rate for demand accesses
system.cpu.dcache.demand_miss_rate::total     0.007978                       # miss rate for demand accesses
system.cpu.dcache.overall_miss_rate::.cpu.data     0.007979                       # miss rate for overall accesses
system.cpu.dcache.overall_miss_rate::total     0.007979                       # miss rate for overall accesses
system.cpu.dcache.demand_avg_miss_latency::.cpu.data 36948.062384                       # average overall miss latency
system.cpu.dcache.demand_avg_miss_latency::total 36948.062384                       # average overall miss latency
system.cpu.dcache.overall_avg_miss_latency::.cpu.data 36938.383461                       # average overall miss latency
system.cpu.dcache.overall_avg_miss_latency::total 36938.383461                       # average overall miss latency
system.cpu.dcache.blocked_cycles::no_mshrs            0                       # number of cycles access was blocked
system.cpu.dcache.blocked_cycles::no_targets            0                       # number of cycles access was blocked
system.cpu.dcache.blocked::no_mshrs                 0                       # number of cycles access was blocked
system.cpu.dcache.blocked::no_targets               0                       # number of cycles access was blocked
system.cpu.dcache.avg_blocked_cycles::no_mshrs          nan                       # average number of cycles each access was blocked
system.cpu.dcache.avg_blocked_cycles::no_targets          nan                       # average number of cycles each access was blocked
system.cpu.dcache.writebacks::.writebacks       149469                       # number of writebacks
system.cpu.dcache.writebacks::total            149469                       # number of writebacks
system.cpu.dcache.demand_mshr_hits::.cpu.data        35821                       # number of demand (read+write) MSHR hits
system.cpu.dcache.demand_mshr_hits::total        35821                       # number of demand (read+write) MSHR hits
system.cpu.dcache.overall_mshr_hits::.cpu.data        35821                       # number of overall MSHR hits
system.cpu.dcache.overall_mshr_hits::total        35821                       # number of overall MSHR hits
system.cpu.dcache.demand_mshr_misses::.cpu.data       250407                       # number of demand (read+write) MSHR misses
system.cpu.dcache.demand_mshr_misses::total       250407                       # number of demand (read+write) MSHR misses
system.cpu.dcache.overall_mshr_misses::.cpu.data       250482                       # number of overall MSHR misses
system.cpu.dcache.overall_mshr_misses::total       250482                       # number of overall MSHR misses
system.cpu.dcache.demand_mshr_miss_latency::.cpu.data   8962479000                       # number of demand (read+write) MSHR miss cycles
system.cpu.dcache.demand_mshr_miss_latency::total   8962479000                       # number of demand (read+write) MSHR miss cycles
system.cpu.dcache.overall_mshr_miss_latency::.cpu.data   8965373500                       # number of overall MSHR miss cycles
system.cpu.dcache.overall_mshr_miss_latency::total   8965373500                       # number of overall MSHR miss cycles
system.cpu.dcache.demand_mshr_miss_rate::.cpu.data     0.006980                       # mshr miss rate for demand accesses
system.cpu.dcache.demand_mshr_miss_rate::total     0.006980                       # mshr miss rate for demand accesses
system.cpu.dcache.overall_mshr_miss_rate::.cpu.data     0.006981                       # mshr miss rate for overall accesses
system.cpu.dcache.overall_mshr_miss_rate::total     0.006981                       # mshr miss rate for overall accesses
system.cpu.dcache.demand_avg_mshr_miss_latency::.cpu.data 35791.647198                       # average overall mshr miss latency
system.cpu.dcache.demand_avg_mshr_miss_latency::total 35791.647198                       # average overall mshr miss latency
system.cpu.dcache.overall_avg_mshr_miss_latency::.cpu.data 35792.486087                       # average overall mshr miss latency
system.cpu.dcache.overall_avg_mshr_miss_latency::total 35792.486087                       # average overall mshr miss latency
system.cpu.dcache.replacements                 249459                       # number of replacements
system.cpu.dcache.ReadReq_hits::.cpu.data     21392090                       # number of ReadReq hits
system.cpu.dcache.ReadReq_hits::total        21392090                       # number of ReadReq hits
system.cpu.dcache.ReadReq_misses::.cpu.data       186106                       # number of ReadReq misses
system.cpu.dcache.ReadReq_misses::total        186106                       # number of ReadReq misses
system.cpu.dcache.ReadReq_miss_latency::.cpu.data   3497013000                       # number of ReadReq miss cycles
system.cpu.dcache.ReadReq_miss_latency::total   3497013000                       # number of ReadReq miss cycles
system.cpu.dcache.ReadReq_accesses::.cpu.data     21578196                       # number of ReadReq accesses(hits+misses)
system.cpu.dcache.ReadReq_accesses::total     21578196                       # number of ReadReq accesses(hits+misses)
system.cpu.dcache.ReadReq_miss_rate::.cpu.data     0.008625                       # miss rate for ReadReq accesses
system.cpu.dcache.ReadReq_miss_rate::total     0.008625                       # miss rate for ReadReq accesses
system.cpu.dcache.ReadReq_avg_miss_latency::.cpu.data 18790.436633                       # average ReadReq miss latency
system.cpu.dcache.ReadReq_avg_miss_latency::total 18790.436633                       # average ReadReq miss latency
system.cpu.dcache.ReadReq_mshr_hits::.cpu.data        14270                       # number of ReadReq MSHR hits
system.cpu.dcache.ReadReq_mshr_hits::total        14270                       # number of ReadReq MSHR hits
system.cpu.dcache.ReadReq_mshr_misses::.cpu.data       171836                       # number of ReadReq MSHR misses
system.cpu.dcache.ReadReq_mshr_misses::total       171836                       # number of ReadReq MSHR misses
system.cpu.dcache.ReadReq_mshr_miss_latency::.cpu.data   3093612500                       # number of ReadReq MSHR miss cycles
system.cpu.dcache.ReadReq_mshr_miss_latency::total   3093612500                       # number of ReadReq MSHR miss cycles
system.cpu.dcache.ReadReq_mshr_miss_rate::.cpu.data     0.007963                       # mshr miss rate for ReadReq accesses
system.cpu.dcache.ReadReq_mshr_miss_rate::total     0.007963                       # mshr miss rate for ReadReq accesses
system.cpu.dcache.ReadReq_avg_mshr_miss_latency::.cpu.data 18003.285109                       # average ReadReq mshr miss latency
system.cpu.dcache.ReadReq_avg_mshr_miss_latency::total 18003.285109                       # average ReadReq mshr miss latency
system.cpu.dcache.WriteReq_hits::.cpu.data     14199177                       # number of WriteReq hits
system.cpu.dcache.WriteReq_hits::total       14199177                       # number of WriteReq hits
system.cpu.dcache.WriteReq_misses::.cpu.data       100122                       # number of WriteReq misses
system.cpu.dcache.WriteReq_misses::total       100122                       # number of WriteReq misses
system.cpu.dcache.WriteReq_miss_latency::.cpu.data   7078557000                       # number of WriteReq miss cycles
system.cpu.dcache.WriteReq_miss_latency::total   7078557000                       # number of WriteReq miss cycles
system.cpu.dcache.WriteReq_accesses::.cpu.data     14299299                       # number of WriteReq accesses(hits+misses)
system.cpu.dcache.WriteReq_accesses::total     14299299                       # number of WriteReq accesses(hits+misses)
system.cpu.dcache.WriteReq_miss_rate::.cpu.data     0.007002                       # miss rate for WriteReq accesses
system.cpu.dcache.WriteReq_miss_rate::total     0.007002                       # miss rate for WriteReq accesses
system.cpu.dcache.WriteReq_avg_miss_latency::.cpu.data 70699.316833                       # average WriteReq miss latency
system.cpu.dcache.WriteReq_avg_miss_latency::total 70699.316833                       # average WriteReq miss latency
system.cpu.dcache.WriteReq_mshr_hits::.cpu.data        21551                       # number of WriteReq MSHR hits
system.cpu.dcache.WriteReq_mshr_hits::total        21551                       # number of WriteReq MSHR hits
system.cpu.dcache.WriteReq_mshr_misses::.cpu.data        78571                       # number of WriteReq MSHR misses
system.cpu.dcache.WriteReq_mshr_misses::total        78571                       # number of WriteReq MSHR misses
system.cpu.dcache.WriteReq_mshr_miss_latency::.cpu.data   5868866500                       # number of WriteReq MSHR miss cycles
system.cpu.dcache.WriteReq_mshr_miss_latency::total   5868866500                       # number of WriteReq MSHR miss cycles
system.cpu.dcache.WriteReq_mshr_miss_rate::.cpu.data     0.005495                       # mshr miss rate for WriteReq accesses
system.cpu.dcache.WriteReq_mshr_miss_rate::total     0.005495                       # mshr miss rate for WriteReq accesses
system.cpu.dcache.WriteReq_avg_mshr_miss_latency::.cpu.data 74695.071973                       # average WriteReq mshr miss latency
system.cpu.dcache.WriteReq_avg_mshr_miss_latency::total 74695.071973                       # average WriteReq mshr miss latency
system.cpu.dcache.SoftPFReq_hits::.cpu.data         3286                       # number of SoftPFReq hits
system.cpu.dcache.SoftPFReq_hits::total          3286                       # number of SoftPFReq hits
system.cpu.dcache.SoftPFReq_misses::.cpu.data           75                       # number of SoftPFReq misses
system.cpu.dcache.SoftPFReq_misses::total           75                       # number of SoftPFReq misses
system.cpu.dcache.SoftPFReq_accesses::.cpu.data         3361                       # number of SoftPFReq accesses(hits+misses)
system.cpu.dcache.SoftPFReq_accesses::total         3361                       # number of SoftPFReq accesses(hits+misses)
system.cpu.dcache.SoftPFReq_miss_rate::.cpu.data     0.022315                       # miss rate for SoftPFReq accesses
system.cpu.dcache.SoftPFReq_miss_rate::total     0.022315                       # miss rate for SoftPFReq accesses
system.cpu.dcache.SoftPFReq_mshr_misses::.cpu.data           75                       # number of SoftPFReq MSHR misses
system.cpu.dcache.SoftPFReq_mshr_misses::total           75                       # number of SoftPFReq MSHR misses
system.cpu.dcache.SoftPFReq_mshr_miss_latency::.cpu.data      2894500                       # number of SoftPFReq MSHR miss cycles
system.cpu.dcache.SoftPFReq_mshr_miss_latency::total      2894500                       # number of SoftPFReq MSHR miss cycles
system.cpu.dcache.SoftPFReq_mshr_miss_rate::.cpu.data     0.022315                       # mshr miss rate for SoftPFReq accesses
system.cpu.dcache.SoftPFReq_mshr_miss_rate::total     0.022315                       # mshr miss rate for SoftPFReq accesses
system.cpu.dcache.SoftPFReq_avg_mshr_miss_latency::.cpu.data 38593.333333                       # average SoftPFReq mshr miss latency
system.cpu.dcache.SoftPFReq_avg_mshr_miss_latency::total 38593.333333                       # average SoftPFReq mshr miss latency
system.cpu.dcache.LoadLockedReq_hits::.cpu.data        89081                       # number of LoadLockedReq hits
system.cpu.dcache.LoadLockedReq_hits::total        89081                       # number of LoadLockedReq hits
system.cpu.dcache.LoadLockedReq_misses::.cpu.data            1                       # number of LoadLockedReq misses
system.cpu.dcache.LoadLockedReq_misses::total            1                       # number of LoadLockedReq misses
system.cpu.dcache.LoadLockedReq_miss_latency::.cpu.data       100500                       # number of LoadLockedReq miss cycles
system.cpu.dcache.LoadLockedReq_miss_latency::total       100500                       # number of LoadLockedReq miss cycles
system.cpu.dcache.LoadLockedReq_accesses::.cpu.data        89082                       # number of LoadLockedReq accesses(hits+misses)
system.cpu.dcache.LoadLockedReq_accesses::total        89082                       # number of LoadLockedReq accesses(hits+misses)
system.cpu.dcache.LoadLockedReq_miss_rate::.cpu.data     0.000011                       # miss rate for LoadLockedReq accesses
system.cpu.dcache.LoadLockedReq_miss_rate::total     0.000011                       # miss rate for LoadLockedReq accesses
system.cpu.dcache.LoadLockedReq_avg_miss_latency::.cpu.data       100500                       # average LoadLockedReq miss latency
system.cpu.dcache.LoadLockedReq_avg_miss_latency::total       100500                       # average LoadLockedReq miss latency
system.cpu.dcache.LoadLockedReq_mshr_misses::.cpu.data            1                       # number of LoadLockedReq MSHR misses
system.cpu.dcache.LoadLockedReq_mshr_misses::total            1                       # number of LoadLockedReq MSHR misses
system.cpu.dcache.LoadLockedReq_mshr_miss_latency::.cpu.data        99500                       # number of LoadLockedReq MSHR miss cycles
system.cpu.dcache.LoadLockedReq_mshr_miss_latency::total        99500                       # number of LoadLockedReq MSHR miss cycles
system.cpu.dcache.LoadLockedReq_mshr_miss_rate::.cpu.data     0.000011                       # mshr miss rate for LoadLockedReq accesses
system.cpu.dcache.LoadLockedReq_mshr_miss_rate::total     0.000011                       # mshr miss rate for LoadLockedReq accesses
system.cpu.dcache.LoadLockedReq_avg_mshr_miss_latency::.cpu.data        99500                       # average LoadLockedReq mshr miss latency
system.cpu.dcache.LoadLockedReq_avg_mshr_miss_latency::total        99500                       # average LoadLockedReq mshr miss latency
system.cpu.dcache.StoreCondReq_hits::.cpu.data        89082                       # number of StoreCondReq hits
system.cpu.dcache.StoreCondReq_hits::total        89082                       # number of StoreCondReq hits
system.cpu.dcache.StoreCondReq_accesses::.cpu.data        89082                       # number of StoreCondReq accesses(hits+misses)
system.cpu.dcache.StoreCondReq_accesses::total        89082                       # number of StoreCondReq accesses(hits+misses)
system.cpu.dcache.tags.pwrStateResidencyTicks::UNDEFINED  61291405500                       # Cumulative time (in ticks) in various power states
system.cpu.dcache.tags.tagsinuse          1021.042114                       # Cycle average of tags in use
system.cpu.dcache.tags.total_refs            36023199                       # Total number of references to valid blocks.
system.cpu.dcache.tags.sampled_refs            250483                       # Sample count of references to valid blocks.
system.cpu.dcache.tags.avg_refs            143.814946                       # Average number of references to valid blocks.
system.cpu.dcache.tags.warmup_cycle            195500                       # Cycle when the warmup percentage was hit.
system.cpu.dcache.tags.occ_blocks::.cpu.data  1021.042114                       # Average occupied blocks per requestor
system.cpu.dcache.tags.occ_percent::.cpu.data     0.997111                       # Average percentage of cache occupancy
system.cpu.dcache.tags.occ_percent::total     0.997111                       # Average percentage of cache occupancy
system.cpu.dcache.tags.occ_task_id_blocks::1024         1024                       # Occupied blocks per task id
system.cpu.dcache.tags.age_task_id_blocks_1024::0           14                       # Occupied blocks per task id
system.cpu.dcache.tags.age_task_id_blocks_1024::1          108                       # Occupied blocks per task id
system.cpu.dcache.tags.age_task_id_blocks_1024::2          674                       # Occupied blocks per task id
system.cpu.dcache.tags.age_task_id_blocks_1024::3          228                       # Occupied blocks per task id
system.cpu.dcache.tags.occ_task_id_percent::1024            1                       # Percentage of cache occupancy per task id
system.cpu.dcache.tags.tag_accesses          36309503                       # Number of tag accesses
system.cpu.dcache.tags.data_accesses         36309503                       # Number of data accesses
system.cpu.itb.walker.pwrStateResidencyTicks::UNDEFINED  61291405500                       # Cumulative time (in ticks) in various power states
system.cpu.itb.stage2_mmu.stage2_tlb.walker.pwrStateResidencyTicks::UNDEFINED  61291405500                       # Cumulative time (in ticks) in various power states

---------- End Simulation Statistics   ----------
